@<TRIPOS>MOLECULE
CF3-O-CF2-O-CF3
 13 12 0 0 0
SMALL
GASTEIGER

@<TRIPOS>ATOM
      1 C          -2.3301   -0.2187    0.0201 C.3     1  LIG1        0.5305
      2 O          -1.0575   -0.6607    0.1875 O.3     1  LIG1       -0.2016
      3 C           0.0001    0.1643    0.0002 C.3     1  LIG1        0.5005
      4 O           1.0575   -0.6597   -0.1918 O.3     1  LIG1       -0.2016
      5 C           2.3300   -0.2187   -0.0212 C.3     1  LIG1        0.5305
      6 F          -2.6450   -0.1468   -1.2463 F       1  LIG1       -0.1439
      7 F          -2.5109    0.9608    0.5589 F       1  LIG1       -0.1439
      8 F          -3.1101   -1.0821    0.6011 F       1  LIG1       -0.1439
      9 F           0.1824    0.9432    1.0459 F       1  LIG1       -0.1474
     10 F          -0.1818    0.9492   -1.0410 F       1  LIG1       -0.1474
     11 F           2.5109    0.9639   -0.5532 F       1  LIG1       -0.1439
     12 F           3.1103   -1.0785   -0.6069 F       1  LIG1       -0.1439
     13 F           2.6442   -0.1540    1.2457 F       1  LIG1       -0.1439
@<TRIPOS>BOND
     1     6     1    1
     2    10     3    1
     3    12     5    1
     4    11     5    1
     5     4     5    1
     6     4     3    1
     7     5    13    1
     8     3     2    1
     9     3     9    1
    10     1     2    1
    11     1     7    1
    12     1     8    1
