@<TRIPOS>MOLECULE
CF3-O-CF2-CF2-CF3
 15 14 0 0 0
SMALL
GASTEIGER

@<TRIPOS>ATOM
      1 C          -2.2642   -0.4075   -0.1165 C.3     1  LIG1        0.5289
      2 O          -0.9873   -0.1392   -0.4981 O.3     1  LIG1       -0.2221
      3 C          -0.2320    0.7848    0.1506 C.3     1  LIG1        0.4354
      4 C           1.2366    0.5925   -0.2542 C.3     1  LIG1        0.4296
      5 C           1.8675   -0.7689    0.0629 C.3     1  LIG1        0.4630
      6 F          -2.9254    0.6842    0.1696 F       1  LIG1       -0.1439
      7 F          -2.2853   -1.1904    0.9299 F       1  LIG1       -0.1439
      8 F          -2.8405   -1.0147   -1.1113 F       1  LIG1       -0.1439
      9 F          -0.5879    2.0079   -0.1907 F       1  LIG1       -0.1680
     10 F          -0.3564    0.6786    1.4609 F       1  LIG1       -0.1680
     11 F           1.3377    0.7947   -1.5597 F       1  LIG1       -0.1864
     12 F           1.9391    1.5176    0.3867 F       1  LIG1       -0.1864
     13 F           1.3032   -1.7227   -0.6360 F       1  LIG1       -0.1647
     14 F           1.7459   -1.0461    1.3399 F       1  LIG1       -0.1647
     15 F           3.1418   -0.7194   -0.2417 F       1  LIG1       -0.1647
@<TRIPOS>BOND
     1    11     4    1
     2     8     1    1
     3    13     5    1
     4     2     1    1
     5     2     3    1
     6     4     5    1
     7     4     3    1
     8     4    12    1
     9    15     5    1
    10     9     3    1
    11     1     6    1
    12     1     7    1
    13     5    14    1
    14     3    10    1
