@<TRIPOS>MOLECULE
CF3-O-(CF2-CF2-O)2-CF3
 23 22 0 0 0
SMALL
GASTEIGER

@<TRIPOS>ATOM
      1 C          -7.7428   -0.2036   -0.0604 C.3     1  LIG1        0.5290
      2 O          -6.5408    0.3817    0.1808 O.3     1  LIG1       -0.2203
      3 C          -5.3895   -0.3393    0.1745 C.3     1  LIG1        0.4554
      4 C          -4.2301    0.6551    0.0406 C.3     1  LIG1        0.4538
      5 O          -3.0766   -0.0672    0.0336 O.3     1  LIG1       -0.2425
      6 C          -1.8736    0.5153    0.2906 C.3     1  LIG1        0.4538
      7 C          -0.7877   -0.4307   -0.2360 C.3     1  LIG1        0.4554
      8 O           0.4129    0.1504    0.0212 O.3     1  LIG1       -0.2203
      9 C           1.5655   -0.5683   -0.0017 C.3     1  LIG1        0.5290
     10 F          -7.9213   -0.4032   -1.3396 F       1  LIG1       -0.1439
     11 F          -8.6587    0.6120    0.3725 F       1  LIG1       -0.1439
     12 F          -7.8559   -1.3519    0.5571 F       1  LIG1       -0.1439
     13 F          -5.3551   -1.1933   -0.8303 F       1  LIG1       -0.1662
     14 F          -5.2505   -1.0167    1.2963 F       1  LIG1       -0.1662
     15 F          -4.2624    1.5082    1.0450 F       1  LIG1       -0.1662
     16 F          -4.3671    1.3309   -1.0818 F       1  LIG1       -0.1662
     17 F          -1.7043    0.6904    1.5851 F       1  LIG1       -0.1662
     18 F          -1.7646    1.6865   -0.3042 F       1  LIG1       -0.1662
     19 F          -0.9592   -0.6073   -1.5306 F       1  LIG1       -0.1662
     20 F          -0.8990   -1.6028    0.3588 F       1  LIG1       -0.1662
     21 F           1.6038   -1.3918   -1.0180 F       1  LIG1       -0.1439
     22 F           1.7105   -1.2612    1.0970 F       1  LIG1       -0.1439
     23 F           2.5445    0.2824   -0.0977 F       1  LIG1       -0.1439
@<TRIPOS>BOND
     1    19     7    1
     2    10     1    1
     3    16     4    1
     4    21     9    1
     5    13     3    1
     6    18     6    1
     7     7     8    1
     8     7     6    1
     9     7    20    1
    10    23     9    1
    11     1     2    1
    12     1    11    1
    13     1    12    1
    14     9     8    1
    15     9    22    1
    16     5     4    1
    17     5     6    1
    18     4     3    1
    19     4    15    1
    20     3     2    1
    21     3    14    1
    22     6    17    1
