@<TRIPOS>MOLECULE
CF3-O-(CF2-CF2-O)3-CF3
 30 29 0 0 0
SMALL
GASTEIGER

@<TRIPOS>ATOM
      1 C          -9.7422   -0.7632   -0.0710 C.3     1  LIG1        0.5290
      2 O          -8.5710   -0.0749   -0.0723 O.3     1  LIG1       -0.2203
      3 C          -7.3880   -0.6931   -0.3245 C.3     1  LIG1        0.4554
      4 C          -6.2739    0.2354    0.1732 C.3     1  LIG1        0.4538
      5 O          -5.0884   -0.3842   -0.0787 O.3     1  LIG1       -0.2425
      6 C          -3.9163    0.3072   -0.0960 C.3     1  LIG1        0.4537
      7 C          -2.7825   -0.7146    0.0511 C.3     1  LIG1        0.4537
      8 O          -1.6104   -0.0233    0.0339 O.3     1  LIG1       -0.2425
      9 C          -0.4250   -0.6429   -0.2185 C.3     1  LIG1        0.4538
     10 C           0.6893    0.2856    0.2790 C.3     1  LIG1        0.4554
     11 O           1.8723   -0.3325    0.0265 O.3     1  LIG1       -0.2203
     12 C           3.0434    0.3559    0.0248 C.3     1  LIG1        0.5290
     13 F          -9.8971   -1.4274    1.0439 F       1  LIG1       -0.1439
     14 F          -9.8096   -1.6079   -1.0684 F       1  LIG1       -0.1439
     15 F         -10.6992    0.1107   -0.1794 F       1  LIG1       -0.1439
     16 F          -7.2307   -0.9031   -1.6159 F       1  LIG1       -0.1662
     17 F          -7.3030   -1.8541    0.2959 F       1  LIG1       -0.1662
     18 F          -6.4287    0.4438    1.4646 F       1  LIG1       -0.1662
     19 F          -6.3563    1.3956   -0.4470 F       1  LIG1       -0.1662
     20 F          -3.8531    1.1806    0.8893 F       1  LIG1       -0.1662
     21 F          -3.7700    0.9547   -1.2338 F       1  LIG1       -0.1662
     22 F          -2.8457   -1.5881   -0.9342 F       1  LIG1       -0.1662
     23 F          -2.9288   -1.3621    1.1889 F       1  LIG1       -0.1662
     24 F          -0.2705   -0.8512   -1.5099 F       1  LIG1       -0.1662
     25 F          -0.3424   -1.8030    0.4017 F       1  LIG1       -0.1662
     26 F           0.5324    0.4956    1.5704 F       1  LIG1       -0.1662
     27 F           0.6042    1.4467   -0.3413 F       1  LIG1       -0.1662
     28 F           3.1110    1.2007    1.0219 F       1  LIG1       -0.1439
     29 F           3.1979    1.0199   -1.0903 F       1  LIG1       -0.1439
     30 F           4.0005   -0.5179    0.1330 F       1  LIG1       -0.1439
@<TRIPOS>BOND
     1    16     3    1
     2    24     9    1
     3    21     6    1
     4    29    12    1
     5    14     1    1
     6    22     7    1
     7    19     4    1
     8    27    10    1
     9     3     2    1
    10     3     4    1
    11     3    17    1
    12     9     8    1
    13     9    10    1
    14     9    25    1
    15    15     1    1
    16     6     5    1
    17     6     7    1
    18     6    20    1
    19     5     4    1
    20     2     1    1
    21     1    13    1
    22    12    11    1
    23    12    30    1
    24    12    28    1
    25    11    10    1
    26     8     7    1
    27     7    23    1
    28     4    18    1
    29    10    26    1
